<?xml version="1.0" encoding="UTF-8"?>

<!-- generated on 2024-07-31 18:42:55 by Eclipse SUMO netedit Version 1.18.0
<configuration xmlns:xsi="http://www.w3.org/2001/XMLSchema-instance" xsi:noNamespaceSchemaLocation="http://sumo.dlr.de/xsd/neteditConfiguration.xsd">

    <input>
        <additional-files value="C:\Users\xjr17\Desktop\沈阳城市交通数据\SY_OD_City\map.taz.xml"/>
        <sumo-net-file value="C:\Users\xjr17\Desktop\沈阳城市交通数据\SY_OD_City\map.net.xml"/>
    </input>

    <output>
        <output-file value="C:\Users\xjr17\Desktop\沈阳城市交通数据\SY_OD_City\map.net.xml"/>
    </output>

    <processing>
        <geometry.min-radius.fix.railways value="false"/>
        <geometry.max-grade.fix value="false"/>
        <offset.disable-normalization value="true"/>
        <lefthand value="0"/>
    </processing>

    <junctions>
        <no-turnarounds value="true"/>
        <junctions.corner-detail value="0"/>
        <junctions.limit-turn-speed value="-1.00"/>
        <rectangular-lane-cut value="0"/>
    </junctions>

    <pedestrian>
        <walkingareas value="0"/>
    </pedestrian>

</configuration>
-->

<net version="1.16" xmlns:xsi="http://www.w3.org/2001/XMLSchema-instance" xsi:noNamespaceSchemaLocation="http://sumo.dlr.de/xsd/net_file.xsd">

    <location netOffset="-525883.16,-4624966.72" convBoundary="0.00,0.00,6591.13,5257.20" origBoundary="123.311550,41.776054,123.390923,41.823398" projParameter="+proj=utm +zone=51 +ellps=WGS84 +datum=WGS84 +units=m +no_defs"/>

    <type id="highway.living_street" priority="3" numLanes="1" speed="2.78" disallow="tram rail_urban rail rail_electric ship" oneway="1"/>
    <type id="highway.path" priority="1" numLanes="1" speed="2.78" allow="pedestrian bicycle" oneway="1" width="2.00"/>
    <type id="highway.pedestrian" priority="1" numLanes="1" speed="2.78" allow="pedestrian" oneway="1" width="2.00"/>
    <type id="highway.primary" priority="9" numLanes="2" speed="27.78" disallow="tram rail_urban rail rail_electric ship" oneway="1"/>
    <type id="highway.residential" priority="4" numLanes="1" speed="13.89" disallow="tram rail_urban rail rail_electric ship" oneway="1"/>
    <type id="highway.secondary" priority="7" numLanes="2" speed="27.78" disallow="tram rail_urban rail rail_electric ship" oneway="1"/>
    <type id="highway.service" priority="2" numLanes="1" speed="5.56" allow="pedestrian delivery bicycle" oneway="1"/>
    <type id="highway.tertiary" priority="6" numLanes="1" speed="22.22" disallow="tram rail_urban rail rail_electric ship" oneway="1"/>
    <type id="highway.unclassified" priority="5" numLanes="1" speed="13.89" disallow="tram rail_urban rail rail_electric ship" oneway="1"/>

    <edge id=":1045518294_0" function="internal">
        <lane id=":1045518294_0_0" index="0" disallow="tram rail_urban rail rail_electric rail_fast ship" speed="22.22" length="0.31" shape="5546.27,4227.02 5546.17,4226.72"/>
    </edge>
    <edge id=":1045518294_1" function="internal">
        <lane id=":1045518294_1_0" index="0" disallow="tram rail_urban rail rail_electric rail_fast ship" speed="22.22" length="2.34" shape="5546.27,4227.02 5546.65,4225.63 5547.28,4224.99"/>
    </edge>
    <edge id=":1045518294_4" function="internal">
        <lane id=":1045518294_4_0" index="0" disallow="tram rail_urban rail rail_electric rail_fast ship" speed="22.22" length="2.34" shape="5547.28,4224.99 5548.16,4225.12 5549.30,4226.01"/>
    </edge>
    <edge id=":1045518294_2" function="internal">
        <lane id=":1045518294_2_0" index="0" disallow="tram rail_urban rail rail_electric rail_fast ship" speed="22.22" length="0.24" shape="5549.23,4225.77 5549.30,4226.01"/>
    </edge>
    <edge id=":1045518294_3" function="internal">
        <lane id=":1045518294_3_0" index="0" disallow="tram rail_urban rail rail_electric rail_fast ship" speed="22.22" length="2.34" shape="5549.23,4225.77 5548.82,4227.16 5548.17,4227.78"/>
    </edge>
    <edge id=":1045518294_5" function="internal">
        <lane id=":1045518294_5_0" index="0" disallow="tram rail_urban rail rail_electric rail_fast ship" speed="22.22" length="2.34" shape="5548.17,4227.78 5547.29,4227.63 5546.17,4226.72"/>
    </edge>
    <edge id=":1338854541_0" function="internal">
        <lane id=":1338854541_0_0" index="0" disallow="tram rail_urban rail rail_electric rail_fast ship" speed="27.78" length="14.43" shape="4428.06,3958.60 4420.94,3946.05"/>
        <lane id=":1338854541_0_1" index="1" disallow="tram rail_urban rail rail_electric rail_fast ship" speed="27.78" length="14.43" shape="4430.85,3957.02 4423.72,3944.47"/>
    </edge>
    <edge id=":1338854541_2" function="internal">
        <lane id=":1338854541_2_0" index="0" disallow="tram rail_urban rail rail_electric rail_fast ship" speed="25.00" length="3.87" shape="4430.85,3957.02 4429.59,3953.36"/>
    </edge>
    <edge id=":1338854541_3" function="internal">
        <lane id=":1338854541_3_0" index="0" disallow="tram rail_urban rail rail_electric rail_fast ship" speed="27.78" length="1.44" shape="4430.85,3957.02 4430.95,3955.58"/>
    </edge>
    <edge id=":1338854541_11" function="internal">
        <lane id=":1338854541_11_0" index="0" disallow="tram rail_urban rail rail_electric rail_fast ship" speed="25.00" length="13.57" shape="4429.59,3953.36 4429.48,3953.03 4430.14,3949.46 4432.84,3946.32 4437.56,3943.59"/>
    </edge>
    <edge id=":1338854541_12" function="internal">
        <lane id=":1338854541_12_0" index="0" disallow="tram rail_urban rail rail_electric rail_fast ship" speed="27.78" length="3.23" shape="4430.95,3955.58 4431.45,3954.84 4432.34,3954.79 4433.63,3955.44"/>
    </edge>
    <edge id=":1338854541_4" function="internal">
        <lane id=":1338854541_4_0" index="0" disallow="tram rail_urban rail rail_electric rail_fast ship" speed="25.00" length="9.04" shape="4438.85,3946.52 4436.71,3947.85 4435.60,3949.51 4435.49,3951.52 4436.41,3953.86"/>
    </edge>
    <edge id=":1338854541_5" function="internal">
        <lane id=":1338854541_5_0" index="0" disallow="tram rail_urban rail rail_electric rail_fast ship" speed="25.00" length="16.87" shape="4438.85,3946.52 4433.71,3948.23 4429.48,3948.46 4426.15,3947.20 4423.72,3944.47"/>
    </edge>
    <edge id=":1338854541_6" function="internal">
        <lane id=":1338854541_6_0" index="0" disallow="tram rail_urban rail rail_electric rail_fast ship" speed="22.22" length="4.67" shape="4438.85,3946.52 4437.43,3946.27 4436.74,3945.69 4436.78,3944.80 4437.56,3943.59"/>
    </edge>
    <edge id=":1338854541_7" function="internal">
        <lane id=":1338854541_7_0" index="0" disallow="tram rail_urban rail rail_electric rail_fast ship" speed="25.00" length="9.57" shape="4429.29,3941.31 4430.81,3943.22 4432.70,3944.24 4434.95,3944.36 4437.56,3943.59"/>
    </edge>
    <edge id=":1338854541_8" function="internal">
        <lane id=":1338854541_8_0" index="0" disallow="tram rail_urban rail rail_electric rail_fast ship" speed="27.78" length="14.43" shape="4429.29,3941.31 4436.41,3953.86"/>
        <lane id=":1338854541_8_1" index="1" disallow="tram rail_urban rail rail_electric rail_fast ship" speed="27.78" length="14.43" shape="4426.50,3942.89 4433.63,3955.44"/>
    </edge>
    <edge id=":1338854541_10" function="internal">
        <lane id=":1338854541_10_0" index="0" disallow="tram rail_urban rail rail_electric rail_fast ship" speed="27.78" length="1.44" shape="4426.50,3942.89 4426.40,3944.32"/>
    </edge>
    <edge id=":1338854541_13" function="internal">
        <lane id=":1338854541_13_0" index="0" disallow="tram rail_urban rail rail_electric rail_fast ship" speed="27.78" length="3.23" shape="4426.40,3944.32 4425.90,3945.07 4425.01,3945.11 4423.72,3944.47"/>
    </edge>
    <edge id=":1338854546_0" function="internal">
        <lane id=":1338854546_0_0" index="0" disallow="tram rail_urban rail rail_electric rail_fast ship" speed="25.00" length="10.57" shape="4853.59,3771.57 4851.81,3769.17 4849.75,3767.80 4847.40,3767.46 4844.76,3768.16"/>
    </edge>
    <edge id=":1338854546_1" function="internal">
        <lane id=":1338854546_1_0" index="0" disallow="tram rail_urban rail rail_electric rail_fast ship" speed="27.78" length="15.68" shape="4853.59,3771.57 4845.94,3757.89"/>
        <lane id=":1338854546_1_1" index="1" disallow="tram rail_urban rail rail_electric rail_fast ship" speed="27.78" length="15.68" shape="4856.38,3770.01 4848.73,3756.33"/>
    </edge>
    <edge id=":1338854546_3" function="internal">
        <lane id=":1338854546_3_0" index="0" disallow="tram rail_urban rail rail_electric rail_fast ship" speed="25.00" length="3.86" shape="4856.38,3770.01 4855.15,3766.35"/>
    </edge>
    <edge id=":1338854546_4" function="internal">
        <lane id=":1338854546_4_0" index="0" disallow="tram rail_urban rail rail_electric rail_fast ship" speed="27.78" length="1.44" shape="4856.38,3770.01 4856.49,3768.57"/>
    </edge>
    <edge id=":1338854546_18" function="internal">
        <lane id=":1338854546_18_0" index="0" disallow="tram rail_urban rail rail_electric rail_fast ship" speed="25.00" length="13.55" shape="4855.15,3766.35 4855.05,3766.03 4855.73,3762.47 4858.44,3759.33 4863.16,3756.62"/>
    </edge>
    <edge id=":1338854546_19" function="internal">
        <lane id=":1338854546_19_0" index="0" disallow="tram rail_urban rail rail_electric rail_fast ship" speed="27.78" length="3.23" shape="4856.49,3768.57 4857.00,3767.83 4857.89,3767.79 4859.18,3768.45"/>
    </edge>
    <edge id=":1338854546_5" function="internal">
        <lane id=":1338854546_5_0" index="0" disallow="tram rail_urban rail rail_electric rail_fast ship" speed="25.00" length="9.04" shape="4864.44,3759.55 4862.30,3760.87 4861.18,3762.54 4861.07,3764.54 4861.97,3766.89"/>
    </edge>
    <edge id=":1338854546_6" function="internal">
        <lane id=":1338854546_6_0" index="0" disallow="tram rail_urban rail rail_electric rail_fast ship" speed="22.22" length="21.48" shape="4864.44,3759.55 4844.76,3768.16"/>
    </edge>
    <edge id=":1338854546_7" function="internal">
        <lane id=":1338854546_7_0" index="0" disallow="tram rail_urban rail rail_electric rail_fast ship" speed="25.00" length="17.84" shape="4864.44,3759.55 4859.27,3761.18 4854.92,3761.18 4851.41,3759.57 4848.73,3756.33"/>
    </edge>
    <edge id=":1338854546_8" function="internal">
        <lane id=":1338854546_8_0" index="0" disallow="tram rail_urban rail rail_electric rail_fast ship" speed="22.22" length="4.67" shape="4864.44,3759.55 4863.02,3759.30 4862.34,3758.72 4862.38,3757.83 4863.16,3756.62"/>
    </edge>
    <edge id=":1338854546_9" function="internal">
        <lane id=":1338854546_9_0" index="0" disallow="tram rail_urban rail rail_electric rail_fast ship" speed="25.00" length="10.58" shape="4854.32,3753.20 4856.10,3755.61 4858.16,3756.98 4860.52,3757.32 4863.16,3756.62"/>
    </edge>
    <edge id=":1338854546_10" function="internal">
        <lane id=":1338854546_10_0" index="0" disallow="tram rail_urban rail rail_electric rail_fast ship" speed="27.78" length="15.68" shape="4854.32,3753.20 4861.97,3766.89"/>
        <lane id=":1338854546_10_1" index="1" disallow="tram rail_urban rail rail_electric rail_fast ship" speed="27.78" length="15.68" shape="4851.53,3754.77 4859.18,3768.45"/>
    </edge>
    <edge id=":1338854546_12" function="internal">
        <lane id=":1338854546_12_0" index="0" disallow="tram rail_urban rail rail_electric rail_fast ship" speed="25.00" length="3.86" shape="4851.53,3754.77 4852.75,3758.43"/>
    </edge>
    <edge id=":1338854546_13" function="internal">
        <lane id=":1338854546_13_0" index="0" disallow="tram rail_urban rail rail_electric rail_fast ship" speed="27.78" length="1.44" shape="4851.53,3754.77 4851.41,3756.20"/>
    </edge>
    <edge id=":1338854546_20" function="internal">
        <lane id=":1338854546_20_0" index="0" disallow="tram rail_urban rail rail_electric rail_fast ship" speed="25.00" length="13.54" shape="4852.75,3758.43 4852.86,3758.74 4852.18,3762.30 4849.48,3765.44 4844.76,3768.16"/>
    </edge>
    <edge id=":1338854546_21" function="internal">
        <lane id=":1338854546_21_0" index="0" disallow="tram rail_urban rail rail_electric rail_fast ship" speed="27.78" length="3.23" shape="4851.41,3756.20 4850.91,3756.94 4850.02,3756.98 4848.73,3756.33"/>
    </edge>
    <edge id=":1338854546_14" function="internal">
        <lane id=":1338854546_14_0" index="0" disallow="tram rail_urban rail rail_electric rail_fast ship" speed="25.00" length="9.04" shape="4843.48,3765.23 4845.61,3763.91 4846.73,3762.24 4846.84,3760.23 4845.94,3757.89"/>
    </edge>
    <edge id=":1338854546_15" function="internal">
        <lane id=":1338854546_15_0" index="0" disallow="tram rail_urban rail rail_electric rail_fast ship" speed="22.22" length="21.49" shape="4843.48,3765.23 4863.16,3756.62"/>
    </edge>
    <edge id=":1338854546_16" function="internal">
        <lane id=":1338854546_16_0" index="0" disallow="tram rail_urban rail rail_electric rail_fast ship" speed="25.00" length="17.83" shape="4843.48,3765.23 4848.64,3763.60 4852.98,3763.59 4856.49,3765.20 4859.18,3768.45"/>
    </edge>
    <edge id=":1338854546_17" function="internal">
        <lane id=":1338854546_17_0" index="0" disallow="tram rail_urban rail rail_electric rail_fast ship" speed="22.22" length="4.67" shape="4843.48,3765.23 4844.90,3765.48 4845.59,3766.06 4845.54,3766.95 4844.76,3768.16"/>
    </edge>
    <edge id=":1338854550_0" function="internal">
        <lane id=":1338854550_0_0" index="0" disallow="tram rail_urban rail rail_electric rail_fast ship" speed="25.00" length="9.11" shape="1830.78,4076.94 1829.69,4074.71 1828.14,4073.35 1826.14,4072.87 1823.67,4073.27"/>
    </edge>
    <edge id=":1338854550_1" function="internal">
        <lane id=":1338854550_1_0" index="0" disallow="tram rail_urban rail rail_electric rail_fast ship" speed="27.78" length="14.44" shape="1830.78,4076.94 1826.35,4063.20"/>
        <lane id=":1338854550_1_1" index="1" disallow="tram rail_urban rail rail_electric rail_fast ship" speed="27.78" length="14.44" shape="1833.82,4075.97 1829.39,4062.21"/>
    </edge>
    <edge id=":1338854550_3" function="internal">
        <lane id=":1338854550_3_0" index="0" disallow="tram rail_urban rail rail_electric rail_fast ship" speed="25.00" length="3.69" shape="1833.82,4075.97 1833.39,4072.30"/>
    </edge>
    <edge id=":1338854550_4" function="internal">
        <lane id=":1338854550_4_0" index="0" disallow="tram rail_urban rail rail_electric rail_fast ship" speed="27.78" length="1.44" shape="1833.82,4075.97 1834.22,4074.58"/>
    </edge>
    <edge id=":1338854550_18" function="internal">
        <lane id=":1338854550_18_0" index="0" disallow="tram rail_urban rail rail_electric rail_fast ship" speed="25.00" length="13.15" shape="1833.39,4072.30 1833.37,4072.08 1834.67,4068.78 1837.73,4066.06 1842.56,4063.92"/>
    </edge>
    <edge id=":1338854550_19" function="internal">
        <lane id=":1338854550_19_0" index="0" disallow="tram rail_urban rail rail_electric rail_fast ship" speed="27.78" length="3.23" shape="1834.22,4074.58 1834.86,4073.95 1835.74,4074.09 1836.87,4074.99"/>
    </edge>
    <edge id=":1338854550_5" function="internal">
        <lane id=":1338854550_5_0" index="0" disallow="tram rail_urban rail rail_electric rail_fast ship" speed="25.00" length="9.04" shape="1843.54,4066.96 1841.32,4068.05 1839.97,4069.59 1839.51,4071.58 1839.92,4074.02"/>
    </edge>
    <edge id=":1338854550_6" function="internal">
        <lane id=":1338854550_6_0" index="0" disallow="tram rail_urban rail rail_electric rail_fast ship" speed="22.22" length="20.85" shape="1843.54,4066.96 1823.67,4073.27"/>
    </edge>
    <edge id=":1338854550_7" function="internal">
        <lane id=":1338854550_7_0" index="0" disallow="tram rail_urban rail rail_electric rail_fast ship" speed="25.00" length="16.91" shape="1843.54,4066.96 1838.38,4068.05 1834.30,4067.62 1831.30,4065.67 1829.39,4062.21"/>
    </edge>
    <edge id=":1338854550_8" function="internal">
        <lane id=":1338854550_8_0" index="0" disallow="tram rail_urban rail rail_electric rail_fast ship" speed="22.22" length="4.67" shape="1843.54,4066.96 1842.16,4066.57 1841.53,4065.93 1841.66,4065.05 1842.56,4063.92"/>
    </edge>
    <edge id=":1338854550_9" function="internal">
        <lane id=":1338854550_9_0" index="0" disallow="tram rail_urban rail rail_electric rail_fast ship" speed="25.00" length="9.10" shape="1835.48,4060.23 1836.58,4062.49 1838.12,4063.86 1840.12,4064.33 1842.56,4063.92"/>
    </edge>
    <edge id=":1338854550_10" function="internal">
        <lane id=":1338854550_10_0" index="0" disallow="tram rail_urban rail rail_electric rail_fast ship" speed="27.78" length="14.47" shape="1835.48,4060.23 1839.92,4074.02"/>
        <lane id=":1338854550_10_1" index="1" disallow="tram rail_urban rail rail_electric rail_fast ship" speed="27.78" length="14.47" shape="1832.43,4061.22 1836.87,4074.99"/>
    </edge>
    <edge id=":1338854550_12" function="internal">
        <lane id=":1338854550_12_0" index="0" disallow="tram rail_urban rail rail_electric rail_fast ship" speed="25.00" length="3.75" shape="1832.43,4061.22 1832.89,4064.95"/>
    </edge>
    <edge id=":1338854550_13" function="internal">
        <lane id=":1338854550_13_0" index="0" disallow="tram rail_urban rail rail_electric rail_fast ship" speed="27.78" length="1.44" shape="1832.43,4061.22 1832.04,4062.61"/>
    </edge>
    <edge id=":1338854550_20" function="internal">
        <lane id=":1338854550_20_0" index="0" disallow="tram rail_urban rail rail_electric rail_fast ship" speed="25.00" length="13.17" shape="1832.89,4064.95 1832.92,4065.15 1831.62,4068.47 1828.53,4071.17 1823.67,4073.27"/>
    </edge>
    <edge id=":1338854550_21" function="internal">
        <lane id=":1338854550_21_0" index="0" disallow="tram rail_urban rail rail_electric rail_fast ship" speed="27.78" length="3.23" shape="1832.04,4062.61 1831.40,4063.24 1830.52,4063.11 1829.39,4062.21"/>
    </edge>
    <edge id=":1338854550_14" function="internal">
        <lane id=":1338854550_14_0" index="0" disallow="tram rail_urban rail rail_electric rail_fast ship" speed="25.00" length="9.03" shape="1822.72,4070.22 1824.96,4069.15 1826.31,4067.63 1826.77,4065.64 1826.35,4063.20"/>
    </edge>
    <edge id=":1338854550_15" function="internal">
        <lane id=":1338854550_15_0" index="0" disallow="tram rail_urban rail rail_electric rail_fast ship" speed="22.22" length="20.82" shape="1822.72,4070.22 1842.56,4063.92"/>
    </edge>
    <edge id=":1338854550_16" function="internal">
        <lane id=":1338854550_16_0" index="0" disallow="tram rail_urban rail rail_electric rail_fast ship" speed="25.00" length="16.89" shape="1822.72,4070.22 1827.91,4069.17 1832.00,4069.62 1834.98,4071.56 1836.87,4074.99"/>
    </edge>
    <edge id=":1338854550_17" function="internal">
        <lane id=":1338854550_17_0" index="0" disallow="tram rail_urban rail rail_electric rail_fast ship" speed="22.22" length="4.67" shape="1822.72,4070.22 1824.10,4070.62 1824.72,4071.27 1824.58,4072.15 1823.67,4073.27"/>
    </edge>
    <edge id=":1338854555_0" function="internal">
        <lane id=":1338854555_0_0" index="0" disallow="tram rail_urban rail rail_electric rail_fast ship" speed="25.00" length="9.65" shape="5404.97,3530.00 5403.45,3527.99 5401.57,3526.90 5399.33,3526.74 5396.73,3527.49"/>
    </edge>
    <edge id=":1338854555_1" function="internal">
        <lane id=":1338854555_1_0" index="0" disallow="tram rail_urban rail rail_electric rail_fast ship" speed="27.78" length="14.62" shape="5404.97,3530.00 5397.91,3517.22"/>
        <lane id=":1338854555_1_1" index="1" disallow="tram rail_urban rail rail_electric rail_fast ship" speed="27.78" length="14.62" shape="5407.78,3528.47 5400.70,3515.65"/>
    </edge>
    <edge id=":1338854555_3" function="internal">
        <lane id=":1338854555_3_0" index="0" disallow="tram rail_urban rail rail_electric rail_fast ship" speed="25.00" length="10.75" shape="5407.78,3528.47 5406.18,3524.98 5405.55,3522.18 5405.88,3520.08 5407.18,3518.68"/>
    </edge>
    <edge id=":1338854555_4" function="internal">
        <lane id=":1338854555_4_0" index="0" disallow="tram rail_urban rail rail_electric rail_fast ship" speed="22.22" length="13.53" shape="5408.81,3521.43 5405.75,3523.17 5402.87,3524.67 5399.94,3526.06 5396.73,3527.49"/>
    </edge>
    <edge id=":1338854555_5" function="internal">
        <lane id=":1338854555_5_0" index="0" disallow="tram rail_urban rail rail_electric rail_fast ship" speed="25.00" length="10.99" shape="5408.81,3521.43 5406.94,3521.88 5404.96,3521.07 5402.88,3518.99 5400.70,3515.65"/>
    </edge>
    <edge id=":1338854555_6" function="internal">
        <lane id=":1338854555_6_0" index="0" disallow="tram rail_urban rail rail_electric rail_fast ship" speed="22.22" length="4.67" shape="5408.81,3521.43 5407.37,3521.35 5406.62,3520.87 5406.56,3519.98 5407.18,3518.68"/>
    </edge>
    <edge id=":1338854555_7" function="internal">
        <lane id=":1338854555_7_0" index="0" disallow="tram rail_urban rail rail_electric rail_fast ship" speed="25.00" length="9.04" shape="5395.45,3524.56 5397.59,3523.23 5398.71,3521.57 5398.82,3519.57 5397.91,3517.22"/>
    </edge>
    <edge id=":1338854555_8" function="internal">
        <lane id=":1338854555_8_0" index="0" disallow="tram rail_urban rail rail_electric rail_fast ship" speed="22.22" length="13.13" shape="5395.45,3524.56 5398.61,3523.15 5401.42,3521.82 5404.18,3520.39 5407.18,3518.68"/>
    </edge>
    <edge id=":1338854555_9" function="internal">
        <lane id=":1338854555_9_0" index="0" disallow="tram rail_urban rail rail_electric rail_fast ship" speed="22.22" length="4.67" shape="5395.45,3524.56 5396.87,3524.81 5397.55,3525.38 5397.51,3526.28 5396.73,3527.49"/>
    </edge>
    <edge id=":1338854558_0" function="internal">
        <lane id=":1338854558_0_0" index="0" disallow="tram rail_urban rail rail_electric rail_fast ship" speed="27.78" length="16.18" shape="5045.97,4092.20 5030.38,4096.53"/>
        <lane id=":1338854558_0_1" index="1" disallow="tram rail_urban rail rail_electric rail_fast ship" speed="27.78" length="16.18" shape="5045.11,4089.12 5029.52,4093.45"/>
    </edge>
    <edge id=":1338854558_2" function="internal">
        <lane id=":1338854558_2_0" index="0" disallow="tram rail_urban rail rail_electric rail_fast ship" speed="27.78" length="13.14" shape="5045.11,4089.12 5039.75,4090.53 5035.82,4091.38 5033.34,4091.66 5032.30,4091.37"/>
        <lane id=":1338854558_2_1" index="1" disallow="tram rail_urban rail rail_electric rail_fast ship" speed="27.78" length="10.35" shape="5045.11,4089.12 5041.11,4090.10 5038.11,4090.54 5036.10,4090.45 5035.10,4089.81"/>
    </edge>
    <edge id=":1338854558_4" function="internal">
        <lane id=":1338854558_4_0" index="0" disallow="tram rail_urban rail rail_electric rail_fast ship" speed="27.78" length="16.40" shape="5040.68,4086.69 5041.31,4089.57 5039.80,4092.17 5036.16,4094.49 5030.38,4096.53"/>
        <lane id=":1338854558_4_1" index="1" disallow="tram rail_urban rail rail_electric rail_fast ship" speed="27.78" length="10.63" shape="5037.89,4088.25 5037.89,4089.51 5036.50,4090.80 5033.71,4092.11 5029.52,4093.45"/>
    </edge>
    <edge id=":1338854558_6" function="internal">
        <lane id=":1338854558_6_0" index="0" disallow="tram rail_urban rail rail_electric rail_fast ship" speed="27.78" length="4.67" shape="5037.89,4088.25 5037.78,4089.69 5037.27,4090.43 5036.38,4090.47 5035.10,4089.81"/>
    </edge>
    <edge id=":1338854560_0" function="internal">
        <lane id=":1338854560_0_0" index="0" disallow="tram rail_urban rail rail_electric rail_fast ship" speed="27.78" length="9.11" shape="4203.80,3563.54 4202.26,3561.54 4200.47,3560.51 4198.42,3560.43 4196.11,3561.31"/>
        <lane id=":1338854560_0_1" index="1" disallow="tram rail_urban rail rail_electric rail_fast ship" speed="27.78" length="14.24" shape="4206.58,3561.96 4204.19,3558.85 4201.38,3557.24 4198.17,3557.13 4194.55,3558.52"/>
    </edge>
    <edge id=":1338854560_2" function="internal">
        <lane id=":1338854560_2_0" index="0" disallow="tram rail_urban rail rail_electric rail_fast ship" speed="27.78" length="16.48" shape="4206.58,3561.96 4203.76,3558.01 4201.22,3555.74 4198.72,3553.45 4196.00,3549.46"/>
    </edge>
    <edge id=":1338854560_3" function="internal">
        <lane id=":1338854560_3_0" index="0" disallow="tram rail_urban rail rail_electric rail_fast ship" speed="27.78" length="4.67" shape="4206.58,3561.96 4206.68,3560.52 4207.18,3559.78 4208.07,3559.73 4209.36,3560.38"/>
    </edge>
    <edge id=":1338854560_4" function="internal">
        <lane id=":1338854560_4_0" index="0" disallow="tram rail_urban rail rail_electric rail_fast ship" speed="27.78" length="9.06" shape="4214.31,3551.17 4212.32,3552.67 4211.30,3554.45 4211.24,3556.49 4212.14,3558.80"/>
    </edge>
    <edge id=":1338854560_5" function="internal">
        <lane id=":1338854560_5_0" index="0" disallow="tram rail_urban rail rail_electric rail_fast ship" speed="27.78" length="20.84" shape="4214.31,3551.17 4196.11,3561.31"/>
        <lane id=":1338854560_5_1" index="1" disallow="tram rail_urban rail rail_electric rail_fast ship" speed="27.78" length="20.84" shape="4212.75,3548.37 4194.55,3558.52"/>
        <lane id=":1338854560_5_2" index="2" disallow="tram rail_urban rail rail_electric rail_fast ship" speed="27.78" length="20.84" shape="4211.19,3545.58 4192.99,3555.72"/>
    </edge>
    <edge id=":1338854560_8" function="internal">
        <lane id=":1338854560_8_0" index="0" disallow="tram rail_urban rail rail_electric rail_fast ship" speed="27.78" length="13.51" shape="4211.19,3545.58 4206.48,3547.92 4202.85,3549.09 4200.29,3549.10 4198.82,3547.94"/>
    </edge>
    <edge id=":1338854560_9" function="internal">
        <lane id=":1338854560_9_0" index="0" disallow="tram rail_urban rail rail_electric rail_fast ship" speed="27.78" length="15.91" shape="4204.45,3544.92 4212.14,3558.80"/>
        <lane id=":1338854560_9_1" index="1" disallow="tram rail_urban rail rail_electric rail_fast ship" speed="27.78" length="15.91" shape="4201.63,3546.43 4209.36,3560.38"/>
    </edge>
    <edge id=":1338854560_11" function="internal">
        <lane id=":1338854560_11_0" index="0" disallow="tram rail_urban rail rail_electric rail_fast ship" speed="27.78" length="13.56" shape="4201.63,3546.43 4201.79,3548.30 4200.40,3550.47 4197.47,3552.95 4192.99,3555.72"/>
    </edge>
    <edge id=":1338854560_12" function="internal">
        <lane id=":1338854560_12_0" index="0" disallow="tram rail_urban rail rail_electric rail_fast ship" speed="27.78" length="4.67" shape="4201.63,3546.43 4201.50,3547.87 4200.98,3548.60 4200.09,3548.62 4198.82,3547.94"/>
    </edge>
    <edge id=":1338854589_0" function="internal">
        <lane id=":1338854589_0_0" index="0" disallow="tram rail_urban rail rail_electric rail_fast ship" speed="27.78" length="9.06" shape="4610.58,3336.75 4609.07,3334.78 4607.30,3333.76 4605.25,3333.70 4602.93,3334.59"/>
        <lane id=":1338854589_0_1" index="1" disallow="tram rail_urban rail rail_electric rail_fast ship" speed="27.78" length="14.22" shape="4613.37,3335.19 4611.01,3332.09 4608.22,3330.49 4605.01,3330.39 4601.37,3331.79"/>
    </edge>
    <edge id=":1338854589_2" function="internal">
        <lane id=":1338854589_2_0" index="0" disallow="tram rail_urban rail rail_electric rail_fast ship" speed="27.78" length="18.00" shape="4613.37,3335.19 4610.36,3330.83 4607.67,3328.28 4604.98,3325.73 4601.96,3321.38"/>
    </edge>
    <edge id=":1338854589_3" function="internal">
        <lane id=":1338854589_3_0" index="0" disallow="tram rail_urban rail rail_electric rail_fast ship" speed="27.78" length="4.67" shape="4613.37,3335.19 4613.48,3333.75 4613.99,3333.01 4614.88,3332.97 4616.16,3333.63"/>
    </edge>
    <edge id=":1338854589_4" function="internal">
        <lane id=":1338854589_4_0" index="0" disallow="tram rail_urban rail rail_electric rail_fast ship" speed="27.78" length="9.03" shape="4621.12,3324.45 4619.15,3325.95 4618.13,3327.72 4618.07,3329.76 4618.96,3332.07"/>
    </edge>
    <edge id=":1338854589_5" function="internal">
        <lane id=":1338854589_5_0" index="0" disallow="tram rail_urban rail rail_electric rail_fast ship" speed="27.78" length="20.82" shape="4621.12,3324.45 4602.93,3334.59"/>
        <lane id=":1338854589_5_1" index="1" disallow="tram rail_urban rail rail_electric rail_fast ship" speed="27.78" length="20.82" shape="4619.56,3321.65 4601.37,3331.79"/>
        <lane id=":1338854589_5_2" index="2" disallow="tram rail_urban rail rail_electric rail_fast ship" speed="27.78" length="20.82" shape="4618.00,3318.86 4599.81,3329.00"/>
    </edge>
    <edge id=":1338854589_8" function="internal">
        <lane id=":1338854589_8_0" index="0" disallow="tram rail_urban rail rail_electric rail_fast ship" speed="27.78" length="14.61" shape="4618.00,3318.86 4613.24,3321.11 4609.44,3322.02 4606.61,3321.59 4604.75,3319.81"/>
    </edge>
    <edge id=":1338854589_9" function="internal">
        <lane id=":1338854589_9_0" index="0" disallow="tram rail_urban rail rail_electric rail_fast ship" speed="27.78" length="17.64" shape="4610.33,3316.68 4618.96,3332.07"/>
        <lane id=":1338854589_9_1" index="1" disallow="tram rail_urban rail rail_electric rail_fast ship" speed="27.78" length="17.64" shape="4607.54,3318.24 4616.16,3333.63"/>
    </edge>
    <edge id=":1338854589_11" function="internal">
        <lane id=":1338854589_11_0" index="0" disallow="tram rail_urban rail rail_electric rail_fast ship" speed="27.78" length="14.58" shape="4607.54,3318.24 4608.09,3320.76 4606.99,3323.39 4604.23,3326.13 4599.81,3329.00"/>
    </edge>
    <edge id=":1338854589_12" function="internal">
        <lane id=":1338854589_12_0" index="0" disallow="tram rail_urban rail rail_electric rail_fast ship" speed="27.78" length="4.67" shape="4607.54,3318.24 4607.43,3319.68 4606.93,3320.42 4606.04,3320.47 4604.75,3319.81"/>
    </edge>